
     RDKit          3D

 55 56  0  0  0  0  0  0  0  0999 V2000
   12.1436   44.9069   -9.1829 C   0  0  0  0  0  0  0  0  0  0  0  0
   11.2009   43.8595   -8.6293 C   0  0  0  0  0  0  0  0  0  0  0  0
   12.0440   42.6237   -8.4088 C   0  0  0  0  0  0  0  0  0  0  0  0
   11.1233   41.5917   -7.7673 C   0  0  0  0  0  0  0  0  0  0  0  0
   10.0231   41.4046   -8.7928 C   0  0  0  0  0  0  0  0  0  0  0  0
    9.2792   42.6463   -9.0870 C   0  0  0  0  0  0  0  0  0  0  0  0
   10.1779   43.6647   -9.5370 O   0  0  0  0  0  0  0  0  0  0  0  0
    8.3515   42.4294  -10.0428 O   0  0  0  0  0  0  0  0  0  0  0  0
    7.0453   42.3505   -9.8435 C   0  0  0  0  0  0  0  0  0  0  0  0
    6.2460   43.5823   -9.7895 C   0  0  0  0  0  0  0  0  0  0  0  0
    6.0748   43.9029   -8.3143 C   0  0  0  0  0  0  0  0  0  0  0  0
    6.6129   42.6815   -7.6614 C   0  0  0  0  0  0  0  0  0  0  0  0
    6.8785   41.7111   -8.5791 O   0  0  0  0  0  0  0  0  0  0  0  0
    5.6357   42.2421   -6.5883 C   0  0  0  0  0  0  0  0  0  0  0  0
    4.9099   41.1320   -7.0231 O   0  0  0  0  0  0  0  0  0  0  0  0
    5.1144   39.9605   -5.8112 S   0  0  0  0  0  6  0  0  0  0  0  0
    6.0028   38.8508   -6.2380 O   0  0  0  0  0  0  0  0  0  0  0  0
    5.7110   40.6825   -4.6256 O   0  0  0  0  0  0  0  0  0  0  0  0
    3.5802   39.4452   -5.3608 O   0  0  0  0  0  0  0  0  0  0  0  0
    6.8519   44.9992   -7.9362 O   0  0  0  0  0  0  0  0  0  0  0  0
    5.9344   46.3778   -8.1284 S   0  0  0  0  0  6  0  0  0  0  0  0
    5.6566   46.6785   -9.5899 O   0  0  0  0  0  0  0  0  0  0  0  0
    6.5466   47.5842   -7.4583 O   0  0  0  0  0  0  0  0  0  0  0  0
    4.4484   46.1045   -7.4022 O   0  0  0  0  0  0  0  0  0  0  0  0
    6.8003   44.6638  -10.4068 O   0  0  0  0  0  0  0  0  0  0  0  0
    8.3877   44.3888  -10.8763 S   0  0  0  0  0  6  0  0  0  0  0  0
    9.3701   44.9824   -9.9479 O   0  0  0  0  0  0  0  0  0  0  0  0
    8.6689   42.9138  -10.9836 O   0  0  0  0  0  0  0  0  0  0  0  0
    8.5886   45.0353  -12.4025 O   0  0  0  0  0  0  0  0  0  0  0  0
    6.3580   41.3012  -10.7722 C   0  0  0  0  0  0  0  0  0  0  0  0
    6.2957   41.8066  -12.0665 O   0  0  0  0  0  0  0  0  0  0  0  0
    7.6559   41.2528  -12.9240 S   0  0  0  0  0  6  0  0  0  0  0  0
    8.4346   42.3495  -13.5564 O   0  0  0  0  0  0  0  0  0  0  0  0
    8.5810   40.5505  -11.9345 O   0  0  0  0  0  0  0  0  0  0  0  0
    7.2145   40.0564  -14.0226 O   0  0  0  0  0  0  0  0  0  0  0  0
    9.2250   40.3642   -8.3991 O   0  0  0  0  0  0  0  0  0  0  0  0
    8.6867   40.5005   -6.8240 S   0  0  0  0  0  6  0  0  0  0  0  0
    7.1894   40.5543   -6.7294 O   0  0  0  0  0  0  0  0  0  0  0  0
    9.2179   39.3119   -6.0426 O   0  0  0  0  0  0  0  0  0  0  0  0
    9.2809   41.9384   -6.1869 O   0  0  0  0  0  0  0  0  0  0  0  0
   10.6682   42.0273   -6.5485 O   0  0  0  0  0  0  0  0  0  0  0  0
   12.0354   42.5039   -5.6635 S   0  0  0  0  0  6  0  0  0  0  0  0
   12.7152   41.2473   -5.2061 O   0  0  0  0  0  0  0  0  0  0  0  0
   12.9984   43.2502   -6.5656 O   0  0  0  0  0  0  0  0  0  0  0  0
   11.5924   43.5017   -4.3916 O   0  0  0  0  0  0  0  0  0  0  0  0
   12.4394   42.1860   -9.6530 O   0  0  0  0  0  0  0  0  0  0  0  0
   11.3961   41.1677  -10.4304 S   0  0  0  0  0  6  0  0  0  0  0  0
   10.2390   42.0085  -10.9566 O   0  0  0  0  0  0  0  0  0  0  0  0
   10.7669   40.1767   -9.4607 O   0  0  0  0  0  0  0  0  0  0  0  0
   12.0782   40.2947  -11.6728 O   0  0  0  0  0  0  0  0  0  0  0  0
   11.7449   45.2158  -10.4744 O   0  0  0  0  0  0  0  0  0  0  0  0
   12.8150   46.2466  -11.2501 S   0  0  0  0  0  6  0  0  0  0  0  0
   12.1834   47.5733  -11.5664 O   0  0  0  0  0  0  0  0  0  0  0  0
   13.2142   45.6337  -12.5613 O   0  0  0  0  0  0  0  0  0  0  0  0
   14.1903   46.5514  -10.3449 O   0  0  0  0  0  0  0  0  0  0  0  0
  1  2  1  0
  2  3  1  0
  3  4  1  0
  4  5  1  0
  5  6  1  0
  6  7  1  0
  6  8  1  0
  8  9  1  0
  9 10  1  0
 10 11  1  0
 11 12  1  0
 12 13  1  0
 12 14  1  0
 14 15  1  0
 15 16  1  0
 16 17  2  0
 16 18  2  0
 16 19  1  0
 11 20  1  0
 20 21  1  0
 21 22  2  0
 21 23  2  0
 21 24  1  0
 10 25  1  0
 25 26  1  0
 26 27  2  0
 26 28  2  0
 26 29  1  0
  9 30  1  0
 30 31  1  0
 31 32  1  0
 32 33  2  0
 32 34  2  0
 32 35  1  0
  5 36  1  0
 36 37  1  0
 37 38  2  0
 37 39  2  0
 37 40  1  0
  4 41  1  0
 41 42  1  0
 42 43  2  0
 42 44  2  0
 42 45  1  0
  3 46  1  0
 46 47  1  0
 47 48  2  0
 47 49  2  0
 47 50  1  0
  1 51  1  0
 51 52  1  0
 52 53  2  0
 52 54  2  0
 52 55  1  0
  7  2  1  0
 13  9  1  0
M  END
$$$$
